/*--------------------------------*- C++ -*----------------------------------*\
| =========                 |                                                 |
| \\      /  F ield         | OpenFOAM: The Open Source CFD Toolbox           |
|  \\    /   O peration     | Version:  v1912                                 |
|   \\  /    A nd           | Website:  www.openfoam.com                      |
|    \\/     M anipulation  |                                                 |
\*---------------------------------------------------------------------------*/
FoamFile
{
    version     2.0;
    format      ascii;
    class       dictionary;
    location    "constant";
    object      transportProperties;
}
// * * * * * * * * * * * * * * * * * * * * * * * * * * * * * * * * * * * * * //

phases (metal gas);

metal
{
    transportModel  PhaseChangeViscosity;
    muFileName        "constant/metalProperties/Ts_mus.dat";
	rhoFileName       "constant/metalProperties/Ts_rhos.dat";
    rho             5000;
}

gas
{
    transportModel  Newtonian;
    nu              5e-05;
    rho             1;
}

sigma
{
	type    temperatureDependent;
	sigma   table
	(
		(100 0.2)
		(500 0.2)
		(800 0.1)
	);
}

// ************************************************************************* //
