/*--------------------------------*- C++ -*----------------------------------*\
| =========                 |                                                 |
| \\      /  F ield         | OpenFOAM: The Open Source CFD Toolbox           |
|  \\    /   O peration     | Version:  v1912                                 |
|   \\  /    A nd           | Website:  www.openfoam.com                      |
|    \\/     M anipulation  |                                                 |
\*---------------------------------------------------------------------------*/
FoamFile
{
    version     2.0;
    format      ascii;
    class       dictionary;
    object      blockMeshDict;
}
// * * * * * * * * * * * * * * * * * * * * * * * * * * * * * * * * * * * * * //

vertices
(
    (0    0    0)
	(0.01 0    0)
	(0.01 0.002 0)
	(0    0.002 0)
	
	(0    0     0.0001)
	(0.01 0     0.0001)
	(0.01 0.002 0.0001)
	(0    0.002 0.0001)
    
);

blocks
(
    hex (0 1 2 3 4 5 6 7) (200 40 1) simpleGrading (1 1 1)
);

edges
(
);

boundary
(
    SideA
    {
        type cyclic;
		neighbourPatch SideB;
        faces
        (
            (0 4 7 3)
        );
    }
	
	SideB
    {
        type cyclic;
		neighbourPatch SideA;
        faces
        (
            (1 5 6 2)
        );
		
    }
    
	BottomWall
    {
        type wall;
        faces
        (
            (0 1 5 4)
        );
    }
    atmosphere
    {
        type patch;
        faces
        (
            (3 2 6 7)
        );
    }
	
	FrontNBack
    {
        type empty;
        faces
        (
            (0 3 2 1)
			(4 5 6 7)
        );
    }
);

mergePatchPairs
(
);

// ************************************************************************* //
