/*--------------------------------*- C++ -*----------------------------------*\
| =========                 |                                                 |
| \\      /  F ield         | OpenFOAM: The Open Source CFD Toolbox           |
|  \\    /   O peration     | Version:  v1912                                 |
|   \\  /    A nd           | Website:  www.openfoam.com                      |
|    \\/     M anipulation  |                                                 |
\*---------------------------------------------------------------------------*/
FoamFile
{
    version     2.0;
    format      ascii;
    class       dictionary;
    location    "system";
    object      setFieldsDict;
}
// * * * * * * * * * * * * * * * * * * * * * * * * * * * * * * * * * * * * * //

defaultFieldValues
(
    volScalarFieldValue alpha.metal 0
	volScalarFieldValue T 300
);

regions
(
    boxToCell
    {
        box (0 0 0) (0.01 0.00001 1);
        fieldValues
        (
            volScalarFieldValue alpha.metal 1
        );
    }
	
	boxToCell
    {
        box (0 0 0) (0.0005 0.00001 1);
        fieldValues
        (
			volScalarFieldValue T 800
        );
    }
	
);


// ************************************************************************* //
